16
R
C     -1.432224    0.268404   -0.000011
C     -0.560029    1.309583    0.000014
C      0.953459    1.086084    0.000014
C      1.432228   -0.268401    0.000006
C      0.560036   -1.309581    0.000002
C     -0.953458   -1.086094    0.000038
H     -2.507230    0.413106   -0.000042
H      2.507228   -0.413100   -0.000031
N     -0.885875    2.609209   -0.000080
H     -1.840460    2.918918   -0.000003
H     -0.125991    3.272999    0.000043
N      0.885870   -2.609207   -0.000099
H      1.840446   -2.918939    0.000004
H      0.125969   -3.272976    0.000038
O      1.672182    2.073763    0.000025
O     -1.672152   -2.073775    0.000038
16
TS-RI
C     -1.470323    0.191760   -0.002651
C     -0.621360    1.293547   -0.004137
C      0.885555    1.069993    0.000058
C      1.462784   -0.185166    0.000507
C      0.589879   -1.260083   -0.001268
C     -0.949778   -1.120418    0.001711
H     -2.548465    0.316709   -0.003057
H      2.539794   -0.306412    0.004282
N     -0.813045    2.578896   -0.002144
H     -1.772430    2.896326    0.001233
H      0.608743    2.849119   -0.000658
N      0.970014   -2.522313   -0.004688
H      1.939730   -2.789908   -0.003592
H      0.226370   -3.212727    0.000803
O      1.517738    2.174529    0.005813
O     -1.586230   -2.173898    0.007755
16
I
C     -1.447418    0.177925   -0.000307
C     -0.580175    1.290315   -0.000092
C      0.919143    1.057393    0.000184
C      1.479767   -0.189230    0.000280
C      0.588170   -1.269902    0.000017
C     -0.951117   -1.122119   -0.000362
H     -2.520829    0.326617   -0.000378
H      2.555715   -0.322041    0.000512
N     -0.811982    2.561475   -0.000232
H     -1.798393    2.797134   -0.000550
H      0.896964    2.860823    0.000626
N      0.948692   -2.525846   -0.000077
H      1.908014   -2.829249    0.000189
H      0.162389   -3.178507   -0.000381
O      1.618466    2.152561    0.000486
O     -1.567443   -2.197888    0.000054
16
TS-IP
C     -1.452263    0.152522    0.001297
C     -0.569101    1.283220    0.000154
C      0.930894    1.059739    0.000050
C      1.492798   -0.173075    0.000965
C      0.597013   -1.275097    0.002122
C     -0.924771   -1.102815    0.002346
H     -2.524707    0.308069    0.001339
H      2.568069   -0.305439    0.000841
N     -0.851497    2.533937   -0.000875
H     -1.850931    2.716528   -0.000828
H      0.956171    2.886952   -0.001633
N      0.815736   -2.541730    0.003164
H      1.744528   -2.934303    0.003665
H     -0.365224   -2.895542    0.003953
O      1.638972    2.167644   -0.000947
O     -1.494366   -2.246710    0.003557
16
P
C     -1.448646    0.119188   -0.000059
C     -0.598846    1.295916   -0.000172
C      0.889041    1.101400   -0.000148
C      1.445800   -0.120326   -0.000083
C      0.595998   -1.297055   -0.000171
C     -0.891887   -1.102537   -0.000130
H     -2.526261    0.240026    0.000064
H      2.523416   -0.241166    0.000020
N     -0.959863    2.520774    0.000408
H     -1.970626    2.633729    0.000946
H      0.937132    2.949306   -0.000693
N      0.957009   -2.521915    0.000411
H      1.967772   -2.634876    0.000937
H     -0.939965   -2.950437   -0.000659
O      1.600059    2.226528   -0.000363
O     -1.602901   -2.227668   -0.000330
