16
R
C     -1.423875    0.274148   -0.005110
C     -0.556822    1.314547   -0.007486
C      0.946865    1.087589   -0.002259
C      1.423875   -0.274149   -0.005113
C      0.556822   -1.314548   -0.007487
C     -0.946866   -1.087590   -0.002251
H     -2.498965    0.422609   -0.003687
H      2.498966   -0.422609   -0.003689
N     -0.888363    2.617038   -0.011446
H     -1.845820    2.916770    0.013825
H     -0.138509    3.289940    0.008852
N      0.888364   -2.617039   -0.011445
H      1.845822   -2.916771    0.013823
H      0.138510   -3.289941    0.008859
O      1.676286    2.065731    0.007291
O     -1.676288   -2.065732    0.007279
16
TS-RI
C     -1.470323    0.191760   -0.002651
C     -0.621360    1.293547   -0.004137
C      0.885555    1.069993    0.000058
C      1.462784   -0.185166    0.000507
C      0.589879   -1.260083   -0.001268
C     -0.949778   -1.120418    0.001711
H     -2.548465    0.316709   -0.003057
H      2.539794   -0.306412    0.004282
N     -0.813045    2.578896   -0.002144
H     -1.772430    2.896326    0.001233
H      0.608743    2.849119   -0.000658
N      0.970014   -2.522313   -0.004688
H      1.939730   -2.789908   -0.003592
H      0.226370   -3.212727    0.000803
O      1.517738    2.174529    0.005813
O     -1.586230   -2.173898    0.007755
16
I
C     -1.437319    0.186794   -0.002608
C     -0.574191    1.305028   -0.002053
C      0.908879    1.053487    0.000239
C      1.469268   -0.196575    0.000512
C      0.577904   -1.272847   -0.000508
C     -0.949814   -1.123565    0.000607
H     -2.513788    0.333559   -0.002025
H      2.545054   -0.328748    0.002027
N     -0.815064    2.575403    0.001807
H     -1.807568    2.788029    0.000161
H      0.903864    2.854929   -0.001919
N      0.951640   -2.529101   -0.002873
H      1.919228   -2.806262   -0.001674
H      0.193866   -3.208352    0.001664
O      1.619850    2.140427    0.003244
O     -1.591847   -2.182746    0.003366
16
TS-IP
C     -1.449542    0.151659    0.001840
C     -0.564371    1.291321   -0.000244
C      0.930585    1.056935    0.001059
C      1.489959   -0.172340    0.001317
C      0.591848   -1.276869    0.001916
C     -0.928467   -1.102045    0.002381
H     -2.524450    0.300518    0.004691
H      2.566259   -0.297394    0.000831
N     -0.865145    2.536791   -0.001689
H     -1.870313    2.693330   -0.001768
H      0.989645    2.888138   -0.004985
N      0.817876   -2.540001    0.001758
H      1.752717   -2.917179    0.005744
H     -0.372977   -2.896752    0.000966
O      1.655907    2.160279    0.001903
O     -1.508210   -2.242491    0.003450
16
P
C     -1.442935    0.116874   -0.000251
C     -0.597149    1.303531    0.001126
C      0.887070    1.101924    0.001391
C      1.440100   -0.118000   -0.000280
C      0.594308   -1.304656    0.001138
C     -0.889913   -1.103051    0.001424
H     -2.522599    0.224744   -0.002843
H      2.519764   -0.225872   -0.002902
N     -0.975117    2.522348    0.001073
H     -1.988697    2.617699    0.002890
H      0.973133    2.953652   -0.004888
N      0.972261   -2.523485    0.001088
H      1.985838   -2.618869    0.002886
H     -0.976003   -2.954827   -0.004870
O      1.618467    2.220902    0.001486
O     -1.621296   -2.222029    0.001509
